/*--------------------------------*- C++ -*----------------------------------*\
| =========                 |                                                 |
| \\      /  F ield         | OpenFOAM: The Open Source CFD Toolbox           |
|  \\    /   O peration     | Version:  1.6                                   |
|   \\  /    A nd           | Web:      www.OpenFOAM.org                      |
|    \\/     M anipulation  |                                                 |
\*---------------------------------------------------------------------------*/
FoamFile
{
    version     2.0;
    format      ascii;
    class       volScalarField;
    location    "0";
    object      T;
}
// * * * * * * * * * * * * * * * * * * * * * * * * * * * * * * * * * * * * * //

dimensions      [0 0 0 1 0 0 0];

internalField   uniform 293.15;

boundaryField
{
    inlet
    {
        type            fixedValue;
        value		$internalField;
    }
    
    outlet
    {
        type            zeroGradient;
    }
    
    cyl-1
    {
	type		zeroGradient;
    }
    
    cyl-2
    {
	type		zeroGradient;
    }
    
    free
    {
	type		zeroGradient;
    }
    
    frontAndBack
    {
        type            empty;
    }
}


// ************************************************************************* //
