/*--------------------------------*- C++ -*----------------------------------*\
| =========                 |                                                 |
| \\      /  F ield         | OpenFOAM: The Open Source CFD Toolbox           |
|  \\    /   O peration     | Version:  2.3                                   |
|   \\  /    A nd           | Web:      www.OpenFOAM.org                      |
|    \\/     M anipulation  |                                                 |
\*---------------------------------------------------------------------------*/
/*   Windows 32 and 64 bit porting by blueCAPE: http://www.bluecape.com.pt   *\
|  Based on Windows porting (2.0.x v4) by Symscape: http://www.symscape.com   |
\*---------------------------------------------------------------------------*/
FoamFile
{
    version     2.0;
    format      ascii;
    class       volScalarField;
    location    "0";
    object      omega;
}
// * * * * * * * * * * * * * * * * * * * * * * * * * * * * * * * * * * * * * //

dimensions      [0 0 -1 0 0 0 0];

internalField   uniform 0.147;

boundaryField
{
    inletAir
    {
        type            fixedValue;
        value           uniform 0.1470;
    }
    
    inletWater
    {
        type            fixedValue;
        value           uniform 0.1470;
    }
    outlet
    {
        type            zeroGradient;
    }
    atmosphere
    {
        type            inletOutlet;
        inletValue      uniform 0.147;
        value           uniform 0.147;
    }
    bottomWall
    {
        type            omegaWallFunction;
        value           uniform 0.147;
    }
    front
    {
        type            empty;
    }
    back
    {
        type            empty;
    }
    dam
    {
        type            omegaWallFunction;
        value           uniform 0.147;
    }
}


// ************************************************************************* //
